examples/tesp-pcs/files/R1-12.47-3_processed.glm
clock {
	timezone EST+5EDT;
  timestamp '2010-06-01 00:00:00';
  stoptime '2010-06-03 00:00:00';
}
#set profiler=1
module tape;
module powerflow{
     solver_method NR;
      default_maximum_voltage_error 1e-6;
};
#ifdef WANT_VI_DUMP
#endif
module climate;
module generators;
module connection;
module residential {
  implicit_enduses NONE;
};
#include "../../../../support/schedules/appliance_schedules.glm";
#include "../../../../support/schedules/water_and_setpoint_schedule_v5.glm";
#include "../../../../support/schedules/commercial_schedules.glm";
#set minimum_timestep=15;
#set relax_naming_rules=1;
#set warn=0;
object metrics_collector_writer {
  interval 300;
  interim 43200;
  filename ${METRICS_FILE};
  // filename R1-12.47-3_processed_metrics.json;
};
object climate {
  name localWeather;
  // tmyfile "../../../../support/weather/AZ-Tucson_International_Ap.tmy3";
  // agent name weather
  interpolate QUADRATIC;
  latitude 30.0;
  longitude -110.0;
  // altitude 0.0;
  tz_meridian 0.0;
};
// default IEEE 1547-2018 settings for Category B
#define INV_VBASE=240.0
#define INV_V1=0.92
#define INV_V2=0.98
#define INV_V3=1.02
#define INV_V4=1.08
#define INV_Q1=0.44
#define INV_Q2=0.00
#define INV_Q3=0.00
#define INV_Q4=-0.44
#define INV_VIN=200.0
#define INV_IIN=32.5
#define INV_VVLOCKOUT=300.0
#define INV_VW_V1=1.05 // 1.05833
#define INV_VW_V2=1.10
#define INV_VW_P1=1.0
#define INV_VW_P2=0.0
#ifdef WANT_VI_DUMP
object voltdump {
  filename Voltage_Dump_R1-12.47-3_processed.csv;
  mode polar;
}
object currdump {
  filename Current_Dump_R1-12.47-3_processed.csv;
  mode polar;
}
#endif // &&& end of common section for combining TESP cases
// solar inverter mode on this feeder
#define INVERTER_MODE=CONSTANT_PF
object transformer_configuration {
  name XF1_POLETOP_BS_250;
  power_rating 250.00;
  powerA_rating 0.0;
  powerB_rating 250.00;
  powerC_rating 0.0;
  install_type POLETOP;
  connect_type SINGLE_PHASE_CENTER_TAPPED;
  primary_voltage 7200.0;
  secondary_voltage 120.0;
  resistance 0.00550;
  resistance1 0.01100;
  resistance2 0.01100;
  reactance 0.03080;
  reactance1 0.01540;
  reactance2 0.01540;
  shunt_resistance 277.78;
  shunt_reactance 55.25;
}
object transformer_configuration {
  name XF1_PADMOUNT_CN_75;
  power_rating 75.00;
  powerA_rating 0.0;
  powerB_rating 0.0;
  powerC_rating 75.00;
  install_type PADMOUNT;
  connect_type WYE_WYE;
  primary_voltage 12470.0;
  secondary_voltage 208.0;
  resistance 0.01600;
  reactance 0.02420;
  shunt_resistance 158.73;
  shunt_reactance 30.86;
}
object transformer_configuration {
  name XF3_PADMOUNT_ABCN_75;
  power_rating 75.00;
  powerA_rating 25.00;
  powerB_rating 25.00;
  powerC_rating 25.00;
  install_type PADMOUNT;
  connect_type WYE_WYE;
  primary_voltage 12470.0;
  secondary_voltage 208.0;
  resistance 0.01600;
  reactance 0.02420;
  shunt_resistance 158.73;
  shunt_reactance 30.86;
}
object transformer_configuration {
  name XF2_POLETOP_ACN_45;
  power_rating 45.00;
  powerA_rating 22.50;
  powerB_rating 0.0;
  powerC_rating 22.50;
  install_type POLETOP;
  connect_type WYE_WYE;
  primary_voltage 12470.0;
  secondary_voltage 208.0;
  resistance 0.01750;
  reactance 0.02120;
  shunt_resistance 142.86;
  shunt_reactance 25.38;
}
object transformer_configuration {
  name XF1_POLETOP_CN_75;
  power_rating 75.00;
  powerA_rating 0.0;
  powerB_rating 0.0;
  powerC_rating 75.00;
  install_type POLETOP;
  connect_type WYE_WYE;
  primary_voltage 12470.0;
  secondary_voltage 208.0;
  resistance 0.01600;
  reactance 0.02420;
  shunt_resistance 158.73;
  shunt_reactance 30.86;
}
object transformer_configuration {
  name XF3_POLETOP_ABCN_112p5;
  power_rating 112.50;
  powerA_rating 37.50;
  powerB_rating 37.50;
  powerC_rating 37.50;
  install_type POLETOP;
  connect_type WYE_WYE;
  primary_voltage 12470.0;
  secondary_voltage 480.0;
  resistance 0.01450;
  reactance 0.02850;
  shunt_resistance 169.49;
  shunt_reactance 33.44;
}
object transformer_configuration {
  name XF1_POLETOP_AN_75;
  power_rating 75.00;
  powerA_rating 75.00;
  powerB_rating 0.0;
  powerC_rating 0.0;
  install_type POLETOP;
  connect_type WYE_WYE;
  primary_voltage 12470.0;
  secondary_voltage 208.0;
  resistance 0.01600;
  reactance 0.02420;
  shunt_resistance 158.73;
  shunt_reactance 30.86;
}
object transformer_configuration {
  name XF1_POLETOP_BN_37p5;
  power_rating 37.50;
  powerA_rating 0.0;
  powerB_rating 37.50;
  powerC_rating 0.0;
  install_type POLETOP;
  connect_type WYE_WYE;
  primary_voltage 12470.0;
  secondary_voltage 208.0;
  resistance 0.01750;
  reactance 0.02120;
  shunt_resistance 142.86;
  shunt_reactance 25.38;
}
object transformer_configuration {
  name XF1_POLETOP_AN_167;
  power_rating 167.00;
  powerA_rating 167.00;
  powerB_rating 0.0;
  powerC_rating 0.0;
  install_type POLETOP;
  connect_type WYE_WYE;
  primary_voltage 12470.0;
  secondary_voltage 480.0;
  resistance 0.01300;
  reactance 0.03520;
  shunt_resistance 200.00;
  shunt_reactance 40.00;
}
object transformer_configuration {
  name XF1_POLETOP_AN_37p5;
  power_rating 37.50;
  powerA_rating 37.50;
  powerB_rating 0.0;
  powerC_rating 0.0;
  install_type POLETOP;
  connect_type WYE_WYE;
  primary_voltage 12470.0;
  secondary_voltage 208.0;
  resistance 0.01750;
  reactance 0.02120;
  shunt_resistance 142.86;
  shunt_reactance 25.38;
}
object transformer_configuration {
  name XF1_POLETOP_BN_25;
  power_rating 25.00;
  powerA_rating 0.0;
  powerB_rating 25.00;
  powerC_rating 0.0;
  install_type POLETOP;
  connect_type WYE_WYE;
  primary_voltage 12470.0;
  secondary_voltage 208.0;
  resistance 0.01900;
  reactance 0.01770;
  shunt_resistance 126.58;
  shunt_reactance 22.57;
}
object transformer_configuration {
  name XF1_POLETOP_BN_100;
  power_rating 100.00;
  powerA_rating 0.0;
  powerB_rating 100.00;
  powerC_rating 0.0;
  install_type POLETOP;
  connect_type WYE_WYE;
  primary_voltage 12470.0;
  secondary_voltage 208.0;
  resistance 0.01450;
  reactance 0.02850;
  shunt_resistance 169.49;
  shunt_reactance 33.44;
}
object transformer_configuration {
  name XF3_POLETOP_ABCN_225;
  power_rating 225.00;
  powerA_rating 75.00;
  powerB_rating 75.00;
  powerC_rating 75.00;
  install_type POLETOP;
  connect_type WYE_WYE;
  primary_voltage 12470.0;
  secondary_voltage 480.0;
  resistance 0.01300;
  reactance 0.03520;
  shunt_resistance 200.00;
  shunt_reactance 40.00;
}
object transformer_configuration {
  name XF3_POLETOP_ABCN_150;
  power_rating 150.00;
  powerA_rating 50.00;
  powerB_rating 50.00;
  powerC_rating 50.00;
  install_type POLETOP;
  connect_type WYE_WYE;
  primary_voltage 12470.0;
  secondary_voltage 480.0;
  resistance 0.01300;
  reactance 0.03250;
  shunt_resistance 185.19;
  shunt_reactance 36.36;
}
object triplex_line_conductor {
  name triplex_4/0_aa;
  resistance 0.48;
  geometric_mean_radius 0.0158;
  rating.summer.continuous 1000.0;
  rating.summer.emergency 1000.0;
  rating.winter.continuous 1000.0;
  rating.winter.emergency 1000.0;
}
object triplex_line_configuration {
  name tpx_config;
  conductor_1 triplex_4/0_aa;
  conductor_2 triplex_4/0_aa;
  conductor_N triplex_4/0_aa;
  insulation_thickness 0.08;
  diameter 0.522;
}
object regulator_configuration {
  name feeder_reg_cfg;
  Control OUTPUT_VOLTAGE;
  band_center 7500.0;
  band_width 120;
  connect_type WYE_WYE;
  time_delay 30;
  raise_taps 16;
  lower_taps 16;
  regulation 0.10;
  tap_pos_A 0;
  tap_pos_B 0;
  tap_pos_C 0;
}
object overhead_line_conductor {
  name ID_161;
  rating.summer.continuous 334.0;
  geometric_mean_radius 0.00814 ft;
  resistance 0.56300;
}
object overhead_line_conductor {
  name ID_162;
  rating.summer.continuous 120.0;
  geometric_mean_radius 0.00700 ft;
  resistance 2.40970;
}
object overhead_line_conductor {
  name ID_163;
  rating.summer.continuous 149.0;
  geometric_mean_radius 0.00663 ft;
  resistance 1.50000;
}
object overhead_line_conductor {
  name ID_164;
  rating.summer.continuous 180.0;
  geometric_mean_radius 0.00418 ft;
  resistance 1.62570;
}
object overhead_line_conductor {
  name ID_165;
  rating.summer.continuous 230.0;
  geometric_mean_radius 0.01203 ft;
  resistance 0.95300;
}
object line_spacing {
  name ID_27;
  distance_AB 0.0 in;
  distance_BC 0.0 in;
  distance_AC 0.0 in;
  distance_AN 0.0 in;
  distance_BN 0.0 in;
  distance_CN 0.0 in;
}
object line_spacing {
  name ID_28;
  distance_AB 57.6 in;
  distance_BC 57.6 in;
  distance_AC 57.6 in;
  distance_AN 84.0 in;
  distance_BN 84.0 in;
  distance_CN 84.0 in;
}
object line_spacing {
  name ID_29;
  distance_AC 57.6 in;
  distance_AN 84.0 in;
  distance_CN 84.0 in;
}
object line_spacing {
  name ID_30;
  distance_CN 84.0 in;
}
object line_spacing {
  name ID_31;
  distance_AN 84.0 in;
}
object line_spacing {
  name ID_32;
  distance_BC 0.0 in;
  distance_BN 0.0 in;
  distance_CN 0.0 in;
}
object line_spacing {
  name ID_33;
  distance_BN 0.0 in;
}
object line_spacing {
  name ID_34;
  distance_BC 57.6 in;
  distance_BN 84.0 in;
  distance_CN 84.0 in;
}
object line_configuration {
  name ID_10;
  conductor_A ID_224;
  conductor_B ID_224;
  conductor_C ID_224;
  conductor_N ID_224;
  spacing ID_27;
}
object line_configuration {
  name ID_11;
  conductor_A ID_161;
  conductor_B ID_161;
  conductor_C ID_161;
  conductor_N ID_161;
  spacing ID_28;
}
object line_configuration {
  name ID_12;
  conductor_A ID_162;
  conductor_C ID_162;
  conductor_N ID_162;
  spacing ID_29;
}
object line_configuration {
  name ID_13;
  conductor_C ID_163;
  conductor_N ID_163;
  spacing ID_30;
}
object line_configuration {
  name ID_14;
  conductor_A ID_162;
  conductor_B ID_162;
  conductor_C ID_162;
  conductor_N ID_162;
  spacing ID_28;
}
object line_configuration {
  name ID_15;
  conductor_A ID_163;
  conductor_C ID_163;
  conductor_N ID_163;
  spacing ID_29;
}
object line_configuration {
  name ID_16;
  conductor_C ID_162;
  conductor_N ID_162;
  spacing ID_30;
}
object line_configuration {
  name ID_17;
  conductor_A ID_164;
  conductor_B ID_164;
  conductor_C ID_164;
  conductor_N ID_164;
  spacing ID_28;
}
object line_configuration {
  name ID_18;
  conductor_A ID_164;
  conductor_N ID_164;
  spacing ID_31;
}
object line_configuration {
  name ID_19;
  conductor_A ID_165;
  conductor_B ID_165;
  conductor_C ID_165;
  conductor_N ID_165;
  spacing ID_28;
}
object line_configuration {
  name ID_20;
  conductor_A ID_163;
  conductor_B ID_163;
  conductor_C ID_163;
  conductor_N ID_163;
  spacing ID_28;
}
object line_configuration {
  name ID_21;
  conductor_B ID_225;
  conductor_C ID_225;
  conductor_N ID_225;
  spacing ID_32;
}
object line_configuration {
  name ID_22;
  conductor_B ID_225;
  conductor_N ID_225;
  spacing ID_33;
}
object line_configuration {
  name ID_23;
  conductor_B ID_163;
  conductor_C ID_163;
  conductor_N ID_163;
  spacing ID_34;
}
object line_configuration {
  name ID_24;
  conductor_A ID_162;
  conductor_N ID_162;
  spacing ID_31;
}
object line_configuration {
  name ID_25;
  conductor_A ID_163;
  conductor_N ID_163;
  spacing ID_31;
}
object line_configuration {
  name ID_26;
  conductor_A ID_225;
  conductor_B ID_225;
  conductor_C ID_225;
  conductor_N ID_225;
  spacing ID_27;
}
object triplex_line_conductor {
  name triplex_4/0 AA;
  resistance 0.48;
  geometric_mean_radius 0.0158;
  rating.summer.continuous 1000.0;
  rating.summer.emergency 1000.0;
  rating.winter.continuous 1000.0;
  rating.winter.emergency 1000.0;
}
object triplex_line_configuration {
  name ID_211;
  conductor_1 triplex_4/0 AA;
  conductor_2 triplex_4/0 AA;
  conductor_N triplex_4/0 AA;
  insulation_thickness 0.08;
  diameter 0.522;
}
object underground_line_conductor {
  name ID_224;
  rating.summer.continuous 488.0;
  outer_diameter 2.15;
  conductor_gmr 0.0371 ft;
  conductor_diameter 1.152;
  conductor_resistance 0.091872;
  neutral_gmr 0.00330 ft;
  neutral_resistance 5.9026;
  neutral_diameter 0.1019;
  neutral_strands 20.0;
  insulation_relative_permitivitty 2.3;
}
object underground_line_conductor {
  name ID_225;
  rating.summer.continuous 142.0;
  outer_diameter 1.27;
  conductor_gmr 0.01142 ft;
  conductor_diameter 0.362;
  conductor_resistance 0.88704;
  neutral_gmr 0.00208 ft;
  neutral_resistance 14.87;
  neutral_diameter 0.0641;
  neutral_strands 16.0;
  insulation_relative_permitivitty 2.3;
}
object fuse {
  name R1_12_47_3_fuse_1;
// downstream 42.94 kva on A
  phases AN;
  from R1_12_47_3_node_19;
  to R1_12_47_3_node_20;
  mean_replacement_time 3600;
  current_limit 40;
  status CLOSED;
}
object fuse {
  name R1_12_47_3_fuse_2;
// downstream 29.74 kva on B
  phases BCN;
  from R1_12_47_3_node_21;
  to R1_12_47_3_node_23;
  mean_replacement_time 3600;
  current_limit 40;
  status CLOSED;
}
object fuse {
  name R1_12_47_3_fuse_3;
// downstream 171.74 kva on A
  phases AN;
  from R1_12_47_3_node_27;
  to R1_12_47_3_node_28;
  mean_replacement_time 3600;
  current_limit 65;
  status CLOSED;
}
object fuse {
  name R1_12_47_3_fuse_4;
// downstream 30.67 kva on A
  phases AN;
  from R1_12_47_3_node_32;
  to R1_12_47_3_node_33;
  mean_replacement_time 3600;
  current_limit 40;
  status CLOSED;
}
object fuse {
  name R1_12_47_3_fuse_5;
// downstream 617.84 kva on ABCS
  phases ABCN;
  from R1_12_47_3_node_32;
  to R1_12_47_3_node_35;
  mean_replacement_time 3600;
  current_limit 100;
  status CLOSED;
}
object fuse {
  name R1_12_47_3_fuse_6;
// downstream 105.85 kva on B
  phases BN;
  from R1_12_47_3_node_36;
  to R1_12_47_3_node_37;
  mean_replacement_time 3600;
  current_limit 40;
  status CLOSED;
}
object fuse {
  name R1_12_47_3_fuse_7;
// downstream 175.27 kva on BS
  phases BN;
  from R1_12_47_3_node_36;
  to R1_12_47_3_node_40;
  mean_replacement_time 3600;
  current_limit 65;
  status CLOSED;
}
object switch {
  name R1_12_47_3_switch_1;
// downstream 1340.83 kva on ABCS
  phases ABCN;
  from R1_12_47_3_node_52;
  to R1_12_47_3_node_2;
  status CLOSED;
}
object switch {
  name R1_12_47_3_switch_2;
  phases ABCN;
  from R1_12_47_3_node_9;
  to R1_12_47_3_node_51;
  status CLOSED;
}
object switch {
  name R1_12_47_3_switch_3;
  phases ABCN;
  from R1_12_47_3_node_15;
  to R1_12_47_3_node_49;
  status CLOSED;
}
object switch {
  name R1_12_47_3_switch_4;
// downstream 1108.01 kva on ABCS
  phases ABCN;
  from R1_12_47_3_node_15;
  to R1_12_47_3_node_17;
  status CLOSED;
}
object switch {
  name R1_12_47_3_switch_5;
  phases ABCN;
  from R1_12_47_3_node_34;
  to R1_12_47_3_node_1;
  status CLOSED;
}
object switch {
  name R1_12_47_3_switch_6;
  phases ABCN;
  from R1_12_47_3_node_34;
  to R1_12_47_3_node_50;
  status CLOSED;
}
object overhead_line {
  name R1_12_47_3_ol_1;
// downstream 1340.83 kva on ABCS
  phases ABCN;
  from R1_12_47_3_node_3;
  to R1_12_47_3_node_4;
  length 387.401;
  configuration ID_11;
}
object overhead_line {
  name R1_12_47_3_ol_2;
  phases ACN;
  from R1_12_47_3_node_4;
  to R1_12_47_3_node_5;
  length 68.936;
  configuration ID_12;
}
object overhead_line {
  name R1_12_47_3_ol_3;
// downstream 54.86 kva on C
  phases CN;
  from R1_12_47_3_node_4;
  to R1_12_47_3_node_6;
  length 157.766;
  configuration ID_13;
}
object overhead_line {
  name R1_12_47_3_ol_4;
// downstream 1285.97 kva on ABCS
  phases ABCN;
  from R1_12_47_3_node_4;
  to R1_12_47_3_node_7;
  length 139.494;
  configuration ID_11;
}
object overhead_line {
  name R1_12_47_3_ol_5;
// downstream 1285.97 kva on ABCS
  phases ABCN;
  from R1_12_47_3_node_7;
  to R1_12_47_3_node_8;
  length 1260.546;
  configuration ID_11;
}
object overhead_line {
  name R1_12_47_3_ol_6;
// downstream 40.81 kva on ABC
  phases ABCN;
  from R1_12_47_3_node_8;
  to R1_12_47_3_node_9;
  length 633.806;
  configuration ID_11;
}
object overhead_line {
  name R1_12_47_3_ol_7;
// downstream 40.81 kva on ABC
  phases ABCN;
  from R1_12_47_3_node_9;
  to R1_12_47_3_node_10;
  length 237.576;
  configuration ID_14;
}
object overhead_line {
  name R1_12_47_3_ol_8;
// downstream 137.15 kva on AC
  phases ACN;
  from R1_12_47_3_node_8;
  to R1_12_47_3_node_11;
  length 749.489;
  configuration ID_15;
}
object overhead_line {
  name R1_12_47_3_ol_9;
// downstream 54.86 kva on C
  phases CN;
  from R1_12_47_3_node_11;
  to R1_12_47_3_node_12;
  length 122.880;
  configuration ID_16;
}
object overhead_line {
  name R1_12_47_3_ol_10;
// downstream 54.86 kva on C
  phases ACN;
  from R1_12_47_3_node_11;
  to R1_12_47_3_node_13;
  length 245.725;
  configuration ID_12;
}
object overhead_line {
  name R1_12_47_3_ol_11;
// downstream 54.86 kva on C
  phases CN;
  from R1_12_47_3_node_13;
  to R1_12_47_3_node_14;
  length 275.331;
  configuration ID_16;
}
object overhead_line {
  name R1_12_47_3_ol_12;
// downstream 1108.01 kva on ABCS
  phases ABCN;
  from R1_12_47_3_node_8;
  to R1_12_47_3_node_15;
  length 275.240;
  configuration ID_11;
}
object overhead_line {
  name R1_12_47_3_ol_13;
  phases ABCN;
  from R1_12_47_3_node_15;
  to R1_12_47_3_node_16;
  length 63.897;
  configuration ID_11;
}
object overhead_line {
  name R1_12_47_3_ol_14;
// downstream 1108.01 kva on ABCS
  phases ABCN;
  from R1_12_47_3_node_17;
  to R1_12_47_3_node_18;
  length 1499.769;
  configuration ID_17;
}
object overhead_line {
  name R1_12_47_3_ol_15;
// downstream 140.69 kva on ABC
  phases ABCN;
  from R1_12_47_3_node_18;
  to R1_12_47_3_node_19;
  length 485.017;
  configuration ID_17;
}
object overhead_line {
  name R1_12_47_3_ol_16;
// downstream 97.75 kva on ABC
  phases ABCN;
  from R1_12_47_3_node_19;
  to R1_12_47_3_node_21;
  length 275.614;
  configuration ID_19;
}
object overhead_line {
  name R1_12_47_3_ol_17;
// downstream 68.01 kva on ABC
  phases ABCN;
  from R1_12_47_3_node_21;
  to R1_12_47_3_node_22;
  length 165.147;
  configuration ID_20;
}
object overhead_line {
  name R1_12_47_3_ol_18;
  phases BCN;
  from R1_12_47_3_node_25;
  to R1_12_47_3_node_26;
  length 497.233;
  configuration ID_23;
}
object overhead_line {
  name R1_12_47_3_ol_19;
// downstream 885.03 kva on ABCS
  phases ABCN;
  from R1_12_47_3_node_18;
  to R1_12_47_3_node_27;
  length 734.441;
  configuration ID_20;
}
object overhead_line {
  name R1_12_47_3_ol_20;
// downstream 30.67 kva on A
  phases AN;
  from R1_12_47_3_node_28;
  to R1_12_47_3_node_29;
  length 111.674;
  configuration ID_25;
}
object overhead_line {
  name R1_12_47_3_ol_21;
// downstream 30.67 kva on A
  phases AN;
  from R1_12_47_3_node_28;
  to R1_12_47_3_node_30;
  length 174.016;
  configuration ID_25;
}
object overhead_line {
  name R1_12_47_3_ol_22;
// downstream 648.51 kva on ABCS
  phases ABCN;
  from R1_12_47_3_node_27;
  to R1_12_47_3_node_31;
  length 229.262;
  configuration ID_20;
}
object overhead_line {
  name R1_12_47_3_ol_23;
// downstream 648.51 kva on ABCS
  phases ABCN;
  from R1_12_47_3_node_31;
  to R1_12_47_3_node_32;
  length 234.203;
  configuration ID_11;
}
object overhead_line {
  name R1_12_47_3_ol_24;
  phases ABCN;
  from R1_12_47_3_node_32;
  to R1_12_47_3_node_34;
  length 693.760;
  configuration ID_11;
}
object overhead_line {
  name R1_12_47_3_ol_25;
// downstream 281.12 kva on BS
  phases ABCN;
  from R1_12_47_3_node_35;
  to R1_12_47_3_node_36;
  length 277.512;
  configuration ID_20;
}
object overhead_line {
  name R1_12_47_3_ol_26;
// downstream 336.72 kva on ABC
  phases ABCN;
  from R1_12_47_3_node_35;
  to R1_12_47_3_node_41;
  length 428.598;
  configuration ID_14;
}
object overhead_line {
  name R1_12_47_3_ol_27;
// downstream 136.02 kva on ABC
  phases ABCN;
  from R1_12_47_3_node_41;
  to R1_12_47_3_node_42;
  length 208.252;
  configuration ID_17;
}
object overhead_line {
  name R1_12_47_3_ol_28;
// downstream 200.70 kva on ABC
  phases ABCN;
  from R1_12_47_3_node_41;
  to R1_12_47_3_node_43;
  length 288.056;
  configuration ID_17;
}
object overhead_line {
  name R1_12_47_3_ol_29;
// downstream 30.67 kva on A
  phases AN;
  from R1_12_47_3_node_43;
  to R1_12_47_3_node_44;
  length 127.857;
  configuration ID_24;
}
object overhead_line {
  name R1_12_47_3_ol_30;
// downstream 170.03 kva on ABC
  phases ABCN;
  from R1_12_47_3_node_43;
  to R1_12_47_3_node_45;
  length 103.017;
  configuration ID_20;
}
object underground_line {
  name R1_12_47_3_ul_1;
// downstream 1340.83 kva on ABCS
  phases ABCN;
  from R1_12_47_3_node_2;
  to R1_12_47_3_node_3;
  length 84.593;
  configuration ID_10;
}
object underground_line {
  name R1_12_47_3_ul_2;
// downstream 29.74 kva on B
  phases BN;
  from R1_12_47_3_node_23;
  to R1_12_47_3_node_24;
  length 160.451;
  configuration ID_22;
}
object underground_line {
  name R1_12_47_3_ul_3;
  phases BCN;
  from R1_12_47_3_node_23;
  to R1_12_47_3_node_25;
  length 190.827;
  configuration ID_21;
}
object underground_line {
  name R1_12_47_3_ul_4;
// downstream 66.23 kva on B
  phases BN;
  from R1_12_47_3_node_37;
  to R1_12_47_3_node_38;
  length 165.500;
  configuration ID_22;
}
object underground_line {
  name R1_12_47_3_ul_5;
// downstream 19.81 kva on B
  phases BN;
  from R1_12_47_3_node_37;
  to R1_12_47_3_node_39;
  length 74.300;
  configuration ID_22;
}
object underground_line {
  name R1_12_47_3_ul_6;
// downstream 170.03 kva on ABC
  phases ABCN;
  from R1_12_47_3_node_45;
  to R1_12_47_3_node_46;
  length 202.409;
  configuration ID_26;
}
object underground_line {
  name R1_12_47_3_ul_7;
// downstream 102.02 kva on ABC
  phases ABCN;
  from R1_12_47_3_node_46;
  to R1_12_47_3_node_47;
  length 131.003;
  configuration ID_26;
}
object underground_line {
  name R1_12_47_3_ul_8;
// downstream 68.01 kva on ABC
  phases ABCN;
  from R1_12_47_3_node_46;
  to R1_12_47_3_node_48;
  length 258.143;
  configuration ID_26;
}
object regulator {
  name R1_12_47_3_reg_1;
// downstream 1340.83 kva on ABCS
  from R1_12_47_3_node_53;
  to R1_12_47_3_meter_22;
  phases ABCN;
  configuration feeder_reg_cfg;
  object metrics_collector {
    interval 300;
  };
}
object transformer {
  name R1_12_47_3_xfmr_1;
// downstream 175.27 kva on BS
  phases BS;
  from R1_12_47_3_node_40;
  to R1_12_47_3_tn_1;
  configuration XF1_POLETOP_BS_250;
}
object transformer {
  name R1_12_47_3_xfmr_2;
// downstream 54.86 kva on C
  phases CN;
  from R1_12_47_3_node_6;
  to R1_12_47_3_meter_1;
  configuration XF1_PADMOUNT_CN_75;
}
object transformer {
  name R1_12_47_3_xfmr_3;
// downstream 40.81 kva on ABC
  phases ABCN;
  from R1_12_47_3_node_10;
  to R1_12_47_3_meter_2;
  configuration XF3_PADMOUNT_ABCN_75;
}
object transformer {
  name R1_12_47_3_xfmr_4;
// downstream 27.43 kva on AC
  phases ACN;
  from R1_12_47_3_node_11;
  to R1_12_47_3_meter_3;
  configuration XF2_POLETOP_ACN_45;
}
object transformer {
  name R1_12_47_3_xfmr_5;
// downstream 54.86 kva on C
  phases CN;
  from R1_12_47_3_node_12;
  to R1_12_47_3_meter_4;
  configuration XF1_POLETOP_CN_75;
}
object transformer {
  name R1_12_47_3_xfmr_6;
// downstream 54.86 kva on C
  phases CN;
  from R1_12_47_3_node_14;
  to R1_12_47_3_meter_5;
  configuration XF1_POLETOP_CN_75;
}
object transformer {
  name R1_12_47_3_xfmr_7;
// downstream 82.29 kva on ABC
  phases ABCN;
  from R1_12_47_3_node_18;
  to R1_12_47_3_meter_6;
  configuration XF3_POLETOP_ABCN_112p5;
}
object transformer {
  name R1_12_47_3_xfmr_8;
// downstream 42.94 kva on A
  phases AN;
  from R1_12_47_3_node_20;
  to R1_12_47_3_meter_7;
  configuration XF1_POLETOP_AN_75;
}
object transformer {
  name R1_12_47_3_xfmr_9;
// downstream 68.01 kva on ABC
  phases ABCN;
  from R1_12_47_3_node_22;
  to R1_12_47_3_meter_8;
  configuration XF3_POLETOP_ABCN_112p5;
}
object transformer {
  name R1_12_47_3_xfmr_10;
// downstream 29.74 kva on B
  phases BN;
  from R1_12_47_3_node_24;
  to R1_12_47_3_meter_9;
  configuration XF1_POLETOP_BN_37p5;
}
object transformer {
  name R1_12_47_3_xfmr_11;
// downstream 64.77 kva on ABC
  phases ABCN;
  from R1_12_47_3_node_27;
  to R1_12_47_3_meter_10;
  configuration XF3_POLETOP_ABCN_112p5;
}
object transformer {
  name R1_12_47_3_xfmr_12;
// downstream 110.41 kva on A
  phases AN;
  from R1_12_47_3_node_28;
  to R1_12_47_3_meter_11;
  configuration XF1_POLETOP_AN_167;
}
object transformer {
  name R1_12_47_3_xfmr_13;
// downstream 30.67 kva on A
  phases AN;
  from R1_12_47_3_node_29;
  to R1_12_47_3_meter_12;
  configuration XF1_POLETOP_AN_37p5;
}
object transformer {
  name R1_12_47_3_xfmr_14;
// downstream 30.67 kva on A
  phases AN;
  from R1_12_47_3_node_30;
  to R1_12_47_3_meter_13;
  configuration XF1_POLETOP_AN_37p5;
}
object transformer {
  name R1_12_47_3_xfmr_15;
// downstream 30.67 kva on A
  phases AN;
  from R1_12_47_3_node_33;
  to R1_12_47_3_meter_14;
  configuration XF1_POLETOP_AN_37p5;
}
object transformer {
  name R1_12_47_3_xfmr_16;
// downstream 19.81 kva on B
  phases BN;
  from R1_12_47_3_node_37;
  to R1_12_47_3_meter_15;
  configuration XF1_POLETOP_BN_25;
}
object transformer {
  name R1_12_47_3_xfmr_17;
// downstream 66.23 kva on B
  phases BN;
  from R1_12_47_3_node_38;
  to R1_12_47_3_meter_16;
  configuration XF1_POLETOP_BN_100;
}
object transformer {
  name R1_12_47_3_xfmr_18;
// downstream 19.81 kva on B
  phases BN;
  from R1_12_47_3_node_39;
  to R1_12_47_3_meter_17;
  configuration XF1_POLETOP_BN_25;
}
object transformer {
  name R1_12_47_3_xfmr_19;
// downstream 136.02 kva on ABC
  phases ABCN;
  from R1_12_47_3_node_42;
  to R1_12_47_3_meter_18;
  configuration XF3_POLETOP_ABCN_225;
}
object transformer {
  name R1_12_47_3_xfmr_20;
// downstream 30.67 kva on A
  phases AN;
  from R1_12_47_3_node_44;
  to R1_12_47_3_meter_19;
  configuration XF1_POLETOP_AN_37p5;
}
object transformer {
  name R1_12_47_3_xfmr_21;
// downstream 102.02 kva on ABC
  phases ABCN;
  from R1_12_47_3_node_47;
  to R1_12_47_3_meter_20;
  configuration XF3_POLETOP_ABCN_150;
}
object transformer {
  name R1_12_47_3_xfmr_22;
// downstream 68.01 kva on ABC
  phases ABCN;
  from R1_12_47_3_node_48;
  to R1_12_47_3_meter_21;
  configuration XF3_POLETOP_ABCN_112p5;
}
object triplex_node {
  name R1_12_47_3_tn_1;
  phases BS;
  nominal_voltage 120.0;
  voltage_1 -60.00-103.92j;
  voltage_2 -60.00-103.92j;
}
object triplex_line {
  name R1_12_47_3_tn_1_tpx_1;
  from R1_12_47_3_tn_1;
  to R1_12_47_3_tn_1_mtr_1;
  phases BS;
  length 30;
  configuration tpx_config;
}
object triplex_meter {
  name R1_12_47_3_tn_1_mtr_1;
  phases BS;
  meter_power_consumption 1+7j;
  bill_mode UNIFORM;
  price 0.1243;
  monthly_fee 5.00;
  bill_day 1;
  nominal_voltage 120.0;
  voltage_1 -60.00-103.92j;
  voltage_2 -60.00-103.92j;
  object metrics_collector {
    interval 300;
  };
}
object triplex_meter {
  name R1_12_47_3_tn_1_mhse_1;
  parent R1_12_47_3_tn_1_mtr_1;
  phases BS;
  nominal_voltage 120.0;
}
object house {
  name R1_12_47_3_tn_1_hse_1;
  parent R1_12_47_3_tn_1_mhse_1;
  groupid SINGLE_FAMILY;
  // thermal_integrity_level VERY_GOOD;
  schedule_skew 2193;
  floor_area 2375;
  number_of_stories 1;
  ceiling_height 8;
  over_sizing_factor 0.1;
  Rroof 45.89;
  Rwall 29.59;
  Rfloor 30.37;
  glazing_layers 3;
  glass_type 2;
  glazing_treatment 2;
  window_frame 4;
  Rdoors 9.97;
  airchange_per_hour 0.24;
  cooling_COP 3.9;
  air_temperature 70.09;
  mass_temperature 70.09;
  total_thermal_mass_per_floor_area 3.009;
  breaker_amps 1000;
  hvac_breaker_rating 1000;
  heating_system_type GAS;
  cooling_system_type NONE;
  cooling_setpoint 80.0; //  cooling7*0.38+79.02;
  heating_setpoint 60.0; //  heating6*1.35+63.85;
  object ZIPload { // responsive
    schedule_skew 2193;
    base_power responsive_loads*1.24;
    heatgain_fraction 0.90;
    impedance_pf 1.00;
    current_pf 1.00;
    power_pf 1.00;
    impedance_fraction 0.20;
    current_fraction 0.40;
    power_fraction 0.40;
  };
  object ZIPload { // unresponsive
    schedule_skew 2193;
    base_power unresponsive_loads*0.94;
    heatgain_fraction 0.90;
    impedance_pf 1.00;
    current_pf 1.00;
    power_pf 1.00;
    impedance_fraction 0.20;
    current_fraction 0.40;
    power_fraction 0.40;
  };
  object metrics_collector {
    interval 300;
  };
}
object triplex_line {
  name R1_12_47_3_tn_1_tpx_2;
  from R1_12_47_3_tn_1;
  to R1_12_47_3_tn_1_mtr_2;
  phases BS;
  length 30;
  configuration tpx_config;
}
object triplex_meter {
  name R1_12_47_3_tn_1_mtr_2;
  phases BS;
  meter_power_consumption 1+7j;
  bill_mode UNIFORM;
  price 0.1243;
  monthly_fee 5.00;
  bill_day 1;
  nominal_voltage 120.0;
  voltage_1 -60.00-103.92j;
  voltage_2 -60.00-103.92j;
  object metrics_collector {
    interval 300;
  };
}
object triplex_meter {
  name R1_12_47_3_tn_1_mhse_2;
  parent R1_12_47_3_tn_1_mtr_2;
  phases BS;
  nominal_voltage 120.0;
}
object house {
  name R1_12_47_3_tn_1_hse_2;
  parent R1_12_47_3_tn_1_mhse_2;
  groupid SINGLE_FAMILY;
  // thermal_integrity_level VERY_GOOD;
  schedule_skew 1650;
  floor_area 2847;
  number_of_stories 2;
  ceiling_height 9;
  over_sizing_factor 0.1;
  Rroof 55.98;
  Rwall 24.00;
  Rfloor 33.50;
  glazing_layers 3;
  glass_type 2;
  glazing_treatment 2;
  window_frame 4;
  Rdoors 12.36;
  airchange_per_hour 0.21;
  cooling_COP 4.0;
  air_temperature 68.23;
  mass_temperature 68.23;
  total_thermal_mass_per_floor_area 3.675;
  breaker_amps 1000;
  hvac_breaker_rating 1000;
  heating_system_type GAS;
  cooling_system_type ELECTRIC;
  cooling_setpoint 80.0; //  cooling7*0.45+76.13;
  heating_setpoint 60.0; //  heating4*1.00+71.29;
  object ZIPload { // responsive
    schedule_skew 1650;
    base_power responsive_loads*1.43;
    heatgain_fraction 0.90;
    impedance_pf 1.00;
    current_pf 1.00;
    power_pf 1.00;
    impedance_fraction 0.20;
    current_fraction 0.40;
    power_fraction 0.40;
  };
  object ZIPload { // unresponsive
    schedule_skew 1650;
    base_power unresponsive_loads*1.36;
    heatgain_fraction 0.90;
    impedance_pf 1.00;
    current_pf 1.00;
    power_pf 1.00;
    impedance_fraction 0.20;
    current_fraction 0.40;
    power_fraction 0.40;
  };
  object waterheater {
    name R1_12_47_3_tn_1_wh_2;
    schedule_skew -4418;
    heating_element_capacity 5.5 kW;
    thermostat_deadband 6.7;
    location INSIDE;
    tank_diameter 1.5;
    tank_UA 2.8;
    water_demand large_6*1.02;
    tank_volume 60;
    waterheater_model MULTILAYER;
    discrete_step_size 60.0;
    lower_tank_setpoint 111.7;
    upper_tank_setpoint 121.7;
    T_mixing_valve 116.7;
    object metrics_collector {
      interval 300;
    };
  };
  object metrics_collector {
    interval 300;
  };
}
object triplex_line {
  name R1_12_47_3_tn_1_tpx_3;
  from R1_12_47_3_tn_1;
  to R1_12_47_3_tn_1_mtr_3;
  phases BS;
  length 30;
  configuration tpx_config;
}
object triplex_meter {
  name R1_12_47_3_tn_1_mtr_3;
  phases BS;
  meter_power_consumption 1+7j;
  bill_mode UNIFORM;
  price 0.1243;
  monthly_fee 5.00;
  bill_day 1;
  nominal_voltage 120.0;
  voltage_1 -60.00-103.92j;
  voltage_2 -60.00-103.92j;
  object metrics_collector {
    interval 300;
  };
}
object triplex_meter {
  name R1_12_47_3_tn_1_mhse_3;
  parent R1_12_47_3_tn_1_mtr_3;
  phases BS;
  nominal_voltage 120.0;
}
object house {
  name R1_12_47_3_tn_1_hse_3;
  parent R1_12_47_3_tn_1_mhse_3;
  groupid SINGLE_FAMILY;
  // thermal_integrity_level VERY_GOOD;
  schedule_skew 1186;
  floor_area 2780;
  number_of_stories 1;
  ceiling_height 9;
  over_sizing_factor 0.1;
  Rroof 54.53;
  Rwall 30.50;
  Rfloor 26.36;
  glazing_layers 3;
  glass_type 2;
  glazing_treatment 2;
  window_frame 4;
  Rdoors 11.44;
  airchange_per_hour 0.30;
  cooling_COP 3.0;
  air_temperature 71.53;
  mass_temperature 71.53;
  total_thermal_mass_per_floor_area 2.991;
  breaker_amps 1000;
  hvac_breaker_rating 1000;
  heating_system_type GAS;
  cooling_system_type ELECTRIC;
  cooling_setpoint 80.0; //  cooling3*1.39+75.59;
  heating_setpoint 60.0; //  heating5*1.19+66.68;
  object ZIPload { // responsive
    schedule_skew 1186;
    base_power responsive_loads*1.17;
    heatgain_fraction 0.90;
    impedance_pf 1.00;
    current_pf 1.00;
    power_pf 1.00;
    impedance_fraction 0.20;
    current_fraction 0.40;
    power_fraction 0.40;
  };
  object ZIPload { // unresponsive
    schedule_skew 1186;
    base_power unresponsive_loads*1.00;
    heatgain_fraction 0.90;
    impedance_pf 1.00;
    current_pf 1.00;
    power_pf 1.00;
    impedance_fraction 0.20;
    current_fraction 0.40;
    power_fraction 0.40;
  };
  object waterheater {
    name R1_12_47_3_tn_1_wh_3;
    schedule_skew 16381;
    heating_element_capacity 5.0 kW;
    thermostat_deadband 5.4;
    location INSIDE;
    tank_diameter 1.5;
    tank_UA 3.1;
    water_demand large_6*1.01;
    tank_volume 50;
    tank_setpoint 123.7;
    object metrics_collector {
      interval 300;
    };
  };
  object metrics_collector {
    interval 300;
  };
}
object triplex_meter {
  name R1_12_47_3_tn_1_msol_3;
  parent R1_12_47_3_tn_1_mtr_3;
  phases BS;
  nominal_voltage 120.0;
  object inverter {
    name R1_12_47_3_tn_1_isol_3;
    phases BS;
    generator_status ONLINE;
    inverter_type FOUR_QUADRANT;
    inverter_efficiency 1;
    rated_power 5017;
    power_factor 1.0;
    four_quadrant_control_mode ${INVERTER_MODE};
    V_base ${INV_VBASE};
    V1 ${INV_V1};
    Q1 ${INV_Q1};
    V2 ${INV_V2};
    Q2 ${INV_Q2};
    V3 ${INV_V3};
    Q3 ${INV_Q3};
    V4 ${INV_V4};
    Q4 ${INV_Q4};
    V_In ${INV_VIN};
    I_In ${INV_IIN};
    volt_var_control_lockout ${INV_VVLOCKOUT};
    VW_V1 ${INV_VW_V1};
    VW_V2 ${INV_VW_V2};
    VW_P1 ${INV_VW_P1};
    VW_P2 ${INV_VW_P2};
    object solar {
      name R1_12_47_3_tn_1_sol_3;
      generator_mode SUPPLY_DRIVEN;
      generator_status ONLINE;
      panel_type SINGLE_CRYSTAL_SILICON;
      efficiency 0.20;
      area 270.00;
    };
    object metrics_collector {
      interval 300;
    };
  };
}
object triplex_line {
  name R1_12_47_3_tn_1_tpx_4;
  from R1_12_47_3_tn_1;
  to R1_12_47_3_tn_1_mtr_4;
  phases BS;
  length 30;
  configuration tpx_config;
}
object triplex_meter {
  name R1_12_47_3_tn_1_mtr_4;
  phases BS;
  meter_power_consumption 1+7j;
  bill_mode UNIFORM;
  price 0.1243;
  monthly_fee 5.00;
  bill_day 1;
  nominal_voltage 120.0;
  voltage_1 -60.00-103.92j;
  voltage_2 -60.00-103.92j;
  object metrics_collector {
    interval 300;
  };
}
object triplex_meter {
  name R1_12_47_3_tn_1_mhse_4;
  parent R1_12_47_3_tn_1_mtr_4;
  phases BS;
  nominal_voltage 120.0;
}
object house {
  name R1_12_47_3_tn_1_hse_4;
  parent R1_12_47_3_tn_1_mhse_4;
  groupid SINGLE_FAMILY;
  // thermal_integrity_level VERY_GOOD;
  schedule_skew -3335;
  floor_area 2410;
  number_of_stories 2;
  ceiling_height 9;
  over_sizing_factor 0.1;
  Rroof 57.13;
  Rwall 23.26;
  Rfloor 34.50;
  glazing_layers 3;
  glass_type 2;
  glazing_treatment 2;
  window_frame 4;
  Rdoors 12.31;
  airchange_per_hour 0.30;
  cooling_COP 3.8;
  air_temperature 68.75;
  mass_temperature 68.75;
  total_thermal_mass_per_floor_area 2.504;
  breaker_amps 1000;
  hvac_breaker_rating 1000;
  heating_system_type GAS;
  cooling_system_type NONE;
  cooling_setpoint 80.0; //  cooling7*1.89+71.00;
  heating_setpoint 60.0; //  heating1*0.54+63.26;
  object ZIPload { // responsive
    schedule_skew -3335;
    base_power responsive_loads*1.09;
    heatgain_fraction 0.90;
    impedance_pf 1.00;
    current_pf 1.00;
    power_pf 1.00;
    impedance_fraction 0.20;
    current_fraction 0.40;
    power_fraction 0.40;
  };
  object ZIPload { // unresponsive
    schedule_skew -3335;
    base_power unresponsive_loads*1.23;
    heatgain_fraction 0.90;
    impedance_pf 1.00;
    current_pf 1.00;
    power_pf 1.00;
    impedance_fraction 0.20;
    current_fraction 0.40;
    power_fraction 0.40;
  };
  object metrics_collector {
    interval 300;
  };
}
object triplex_meter {
  name R1_12_47_3_tn_1_msol_4;
  parent R1_12_47_3_tn_1_mtr_4;
  phases BS;
  nominal_voltage 120.0;
  object inverter {
    name R1_12_47_3_tn_1_isol_4;
    phases BS;
    generator_status ONLINE;
    inverter_type FOUR_QUADRANT;
    inverter_efficiency 1;
    rated_power 4478;
    power_factor 1.0;
    four_quadrant_control_mode ${INVERTER_MODE};
    V_base ${INV_VBASE};
    V1 ${INV_V1};
    Q1 ${INV_Q1};
    V2 ${INV_V2};
    Q2 ${INV_Q2};
    V3 ${INV_V3};
    Q3 ${INV_Q3};
    V4 ${INV_V4};
    Q4 ${INV_Q4};
    V_In ${INV_VIN};
    I_In ${INV_IIN};
    volt_var_control_lockout ${INV_VVLOCKOUT};
    VW_V1 ${INV_VW_V1};
    VW_V2 ${INV_VW_V2};
    VW_P1 ${INV_VW_P1};
    VW_P2 ${INV_VW_P2};
    object solar {
      name R1_12_47_3_tn_1_sol_4;
      generator_mode SUPPLY_DRIVEN;
      generator_status ONLINE;
      panel_type SINGLE_CRYSTAL_SILICON;
      efficiency 0.20;
      area 241.01;
    };
    object metrics_collector {
      interval 300;
    };
  };
}
object triplex_meter {
  name R1_12_47_3_tn_1_mbat_4;
  parent R1_12_47_3_tn_1_mtr_4;
  phases BS;
  nominal_voltage 120.0;
  object inverter {
    name R1_12_47_3_tn_1_ibat_4;
    phases BS;
    generator_status ONLINE;
    generator_mode CONSTANT_PQ;
    inverter_type FOUR_QUADRANT;
    four_quadrant_control_mode LOAD_FOLLOWING;
    V_base ${INV_VBASE};
    charge_lockout_time 1;
    discharge_lockout_time 1;
    rated_power 5000;
    max_charge_rate 5000;
    max_discharge_rate 5000;
    sense_object R1_12_47_3_tn_1_mtr_4;
    charge_on_threshold -100;
    charge_off_threshold 0;
    discharge_off_threshold 2000;
    discharge_on_threshold 3000;
    inverter_efficiency 0.97;
    power_factor 1.0;
    object battery { // Tesla Powerwall 2
      name R1_12_47_3_tn_1_bat_4;
      generator_status ONLINE;
      use_internal_battery_model true;
      generator_mode CONSTANT_PQ;
      battery_type LI_ION;
      nominal_voltage 480;
      battery_capacity 13500;
      round_trip_efficiency 0.86;
      state_of_charge 0.50;
      generator_mode SUPPLY_DRIVEN;
    };
    object metrics_collector {
      interval 300;
    };
  };
}
object triplex_line {
  name R1_12_47_3_tn_1_tpx_5;
  from R1_12_47_3_tn_1;
  to R1_12_47_3_tn_1_mtr_5;
  phases BS;
  length 30;
  configuration tpx_config;
}
object triplex_meter {
  name R1_12_47_3_tn_1_mtr_5;
  phases BS;
  meter_power_consumption 1+7j;
  bill_mode UNIFORM;
  price 0.1243;
  monthly_fee 5.00;
  bill_day 1;
  nominal_voltage 120.0;
  voltage_1 -60.00-103.92j;
  voltage_2 -60.00-103.92j;
  object metrics_collector {
    interval 300;
  };
}
object triplex_meter {
  name R1_12_47_3_tn_1_mhse_5;
  parent R1_12_47_3_tn_1_mtr_5;
  phases BS;
  nominal_voltage 120.0;
}
object house {
  name R1_12_47_3_tn_1_hse_5;
  parent R1_12_47_3_tn_1_mhse_5;
  groupid SINGLE_FAMILY;
  // thermal_integrity_level VERY_GOOD;
  schedule_skew 400;
  floor_area 2669;
  number_of_stories 2;
  ceiling_height 9;
  over_sizing_factor 0.1;
  Rroof 41.85;
  Rwall 23.32;
  Rfloor 26.19;
  glazing_layers 3;
  glass_type 2;
  glazing_treatment 2;
  window_frame 4;
  Rdoors 10.42;
  airchange_per_hour 0.20;
  cooling_COP 3.4;
  air_temperature 68.57;
  mass_temperature 68.57;
  total_thermal_mass_per_floor_area 3.127;
  breaker_amps 1000;
  hvac_breaker_rating 1000;
  heating_system_type GAS;
  cooling_system_type NONE;
  cooling_setpoint 80.0; //  cooling5*1.38+71.00;
  heating_setpoint 60.0; //  heating5*0.50+67.13;
  object ZIPload { // responsive
    schedule_skew 400;
    base_power responsive_loads*1.06;
    heatgain_fraction 0.90;
    impedance_pf 1.00;
    current_pf 1.00;
    power_pf 1.00;
    impedance_fraction 0.20;
    current_fraction 0.40;
    power_fraction 0.40;
  };
  object ZIPload { // unresponsive
    schedule_skew 400;
    base_power unresponsive_loads*1.04;
    heatgain_fraction 0.90;
    impedance_pf 1.00;
    current_pf 1.00;
    power_pf 1.00;
    impedance_fraction 0.20;
    current_fraction 0.40;
    power_fraction 0.40;
  };
  object waterheater {
    name R1_12_47_3_tn_1_wh_5;
    schedule_skew 2157;
    heating_element_capacity 4.0 kW;
    thermostat_deadband 4.4;
    location INSIDE;
    tank_diameter 1.5;
    tank_UA 3.7;
    water_demand large_4*1.02;
    tank_volume 70;
    tank_setpoint 122.5;
    object metrics_collector {
      interval 300;
    };
  };
  object metrics_collector {
    interval 300;
  };
}
object triplex_meter {
  name R1_12_47_3_tn_1_msol_5;
  parent R1_12_47_3_tn_1_mtr_5;
  phases BS;
  nominal_voltage 120.0;
  object inverter {
    name R1_12_47_3_tn_1_isol_5;
    phases BS;
    generator_status ONLINE;
    inverter_type FOUR_QUADRANT;
    inverter_efficiency 1;
    rated_power 4959;
    power_factor 1.0;
    four_quadrant_control_mode ${INVERTER_MODE};
    V_base ${INV_VBASE};
    V1 ${INV_V1};
    Q1 ${INV_Q1};
    V2 ${INV_V2};
    Q2 ${INV_Q2};
    V3 ${INV_V3};
    Q3 ${INV_Q3};
    V4 ${INV_V4};
    Q4 ${INV_Q4};
    V_In ${INV_VIN};
    I_In ${INV_IIN};
    volt_var_control_lockout ${INV_VVLOCKOUT};
    VW_V1 ${INV_VW_V1};
    VW_V2 ${INV_VW_V2};
    VW_P1 ${INV_VW_P1};
    VW_P2 ${INV_VW_P2};
    object solar {
      name R1_12_47_3_tn_1_sol_5;
      generator_mode SUPPLY_DRIVEN;
      generator_status ONLINE;
      panel_type SINGLE_CRYSTAL_SILICON;
      efficiency 0.20;
      area 266.92;
    };
    object metrics_collector {
      interval 300;
    };
  };
}
object triplex_meter {
  name R1_12_47_3_tn_1_mbat_5;
  parent R1_12_47_3_tn_1_mtr_5;
  phases BS;
  nominal_voltage 120.0;
  object inverter {
    name R1_12_47_3_tn_1_ibat_5;
    phases BS;
    generator_status ONLINE;
    generator_mode CONSTANT_PQ;
    inverter_type FOUR_QUADRANT;
    four_quadrant_control_mode LOAD_FOLLOWING;
    V_base ${INV_VBASE};
    charge_lockout_time 1;
    discharge_lockout_time 1;
    rated_power 5000;
    max_charge_rate 5000;
    max_discharge_rate 5000;
    sense_object R1_12_47_3_tn_1_mtr_5;
    charge_on_threshold -100;
    charge_off_threshold 0;
    discharge_off_threshold 2000;
    discharge_on_threshold 3000;
    inverter_efficiency 0.97;
    power_factor 1.0;
    object battery { // Tesla Powerwall 2
      name R1_12_47_3_tn_1_bat_5;
      generator_status ONLINE;
      use_internal_battery_model true;
      generator_mode CONSTANT_PQ;
      battery_type LI_ION;
      nominal_voltage 480;
      battery_capacity 13500;
      round_trip_efficiency 0.86;
      state_of_charge 0.50;
      generator_mode SUPPLY_DRIVEN;
    };
    object metrics_collector {
      interval 300;
    };
  };
}
object triplex_line {
  name R1_12_47_3_tn_1_tpx_6;
  from R1_12_47_3_tn_1;
  to R1_12_47_3_tn_1_mtr_6;
  phases BS;
  length 30;
  configuration tpx_config;
}
object triplex_meter {
  name R1_12_47_3_tn_1_mtr_6;
  phases BS;
  meter_power_consumption 1+7j;
  bill_mode UNIFORM;
  price 0.1243;
  monthly_fee 5.00;
  bill_day 1;
  nominal_voltage 120.0;
  voltage_1 -60.00-103.92j;
  voltage_2 -60.00-103.92j;
  object metrics_collector {
    interval 300;
  };
}
object triplex_meter {
  name R1_12_47_3_tn_1_mhse_6;
  parent R1_12_47_3_tn_1_mtr_6;
  phases BS;
  nominal_voltage 120.0;
}
object house {
  name R1_12_47_3_tn_1_hse_6;
  parent R1_12_47_3_tn_1_mhse_6;
  groupid SINGLE_FAMILY;
  // thermal_integrity_level VERY_GOOD;
  schedule_skew -3395;
  floor_area 2433;
  number_of_stories 1;
  ceiling_height 8;
  over_sizing_factor 0.1;
  Rroof 48.24;
  Rwall 32.34;
  Rfloor 27.71;
  glazing_layers 3;
  glass_type 2;
  glazing_treatment 2;
  window_frame 4;
  Rdoors 12.87;
  airchange_per_hour 0.30;
  cooling_COP 3.5;
  air_temperature 68.57;
  mass_temperature 68.57;
  total_thermal_mass_per_floor_area 3.947;
  breaker_amps 1000;
  hvac_breaker_rating 1000;
  heating_system_type GAS;
  cooling_system_type ELECTRIC;
  cooling_setpoint 80.0; //  cooling8*1.01+76.91;
  heating_setpoint 60.0; //  heating3*1.53+70.79;
  object ZIPload { // responsive
    schedule_skew -3395;
    base_power responsive_loads*1.04;
    heatgain_fraction 0.90;
    impedance_pf 1.00;
    current_pf 1.00;
    power_pf 1.00;
    impedance_fraction 0.20;
    current_fraction 0.40;
    power_fraction 0.40;
  };
  object ZIPload { // unresponsive
    schedule_skew -3395;
    base_power unresponsive_loads*0.98;
    heatgain_fraction 0.90;
    impedance_pf 1.00;
    current_pf 1.00;
    power_pf 1.00;
    impedance_fraction 0.20;
    current_fraction 0.40;
    power_fraction 0.40;
  };
  object metrics_collector {
    interval 300;
  };
}
object triplex_line {
  name R1_12_47_3_tn_1_tpx_7;
  from R1_12_47_3_tn_1;
  to R1_12_47_3_tn_1_mtr_7;
  phases BS;
  length 30;
  configuration tpx_config;
}
object triplex_meter {
  name R1_12_47_3_tn_1_mtr_7;
  phases BS;
  meter_power_consumption 1+7j;
  bill_mode UNIFORM;
  price 0.1243;
  monthly_fee 5.00;
  bill_day 1;
  nominal_voltage 120.0;
  voltage_1 -60.00-103.92j;
  voltage_2 -60.00-103.92j;
  object metrics_collector {
    interval 300;
  };
}
object triplex_meter {
  name R1_12_47_3_tn_1_mhse_7;
  parent R1_12_47_3_tn_1_mtr_7;
  phases BS;
  nominal_voltage 120.0;
}
object house {
  name R1_12_47_3_tn_1_hse_7;
  parent R1_12_47_3_tn_1_mhse_7;
  groupid SINGLE_FAMILY;
  // thermal_integrity_level VERY_GOOD;
  schedule_skew 1484;
  floor_area 2602;
  number_of_stories 1;
  ceiling_height 9;
  over_sizing_factor 0.1;
  Rroof 51.67;
  Rwall 28.63;
  Rfloor 34.40;
  glazing_layers 3;
  glass_type 2;
  glazing_treatment 2;
  window_frame 4;
  Rdoors 11.09;
  airchange_per_hour 0.27;
  cooling_COP 3.4;
  air_temperature 71.93;
  mass_temperature 71.93;
  total_thermal_mass_per_floor_area 3.518;
  breaker_amps 1000;
  hvac_breaker_rating 1000;
  heating_system_type GAS;
  cooling_system_type NONE;
  cooling_setpoint 80.0; //  cooling3*0.05+71.00;
  heating_setpoint 60.0; //  heating1*1.18+64.03;
  object ZIPload { // responsive
    schedule_skew 1484;
    base_power responsive_loads*1.17;
    heatgain_fraction 0.90;
    impedance_pf 1.00;
    current_pf 1.00;
    power_pf 1.00;
    impedance_fraction 0.20;
    current_fraction 0.40;
    power_fraction 0.40;
  };
  object ZIPload { // unresponsive
    schedule_skew 1484;
    base_power unresponsive_loads*0.96;
    heatgain_fraction 0.90;
    impedance_pf 1.00;
    current_pf 1.00;
    power_pf 1.00;
    impedance_fraction 0.20;
    current_fraction 0.40;
    power_fraction 0.40;
  };
  object metrics_collector {
    interval 300;
  };
}
object triplex_line {
  name R1_12_47_3_tn_1_tpx_8;
  from R1_12_47_3_tn_1;
  to R1_12_47_3_tn_1_mtr_8;
  phases BS;
  length 30;
  configuration tpx_config;
}
object triplex_meter {
  name R1_12_47_3_tn_1_mtr_8;
  phases BS;
  meter_power_consumption 1+7j;
  bill_mode UNIFORM;
  price 0.1243;
  monthly_fee 5.00;
  bill_day 1;
  nominal_voltage 120.0;
  voltage_1 -60.00-103.92j;
  voltage_2 -60.00-103.92j;
  object metrics_collector {
    interval 300;
  };
}
object triplex_meter {
  name R1_12_47_3_tn_1_mhse_8;
  parent R1_12_47_3_tn_1_mtr_8;
  phases BS;
  nominal_voltage 120.0;
}
object house {
  name R1_12_47_3_tn_1_hse_8;
  parent R1_12_47_3_tn_1_mhse_8;
  groupid SINGLE_FAMILY;
  // thermal_integrity_level VERY_GOOD;
  schedule_skew 1887;
  floor_area 2041;
  number_of_stories 1;
  ceiling_height 8;
  over_sizing_factor 0.1;
  Rroof 42.94;
  Rwall 32.34;
  Rfloor 33.46;
  glazing_layers 3;
  glass_type 2;
  glazing_treatment 2;
  window_frame 4;
  Rdoors 9.13;
  airchange_per_hour 0.24;
  cooling_COP 3.4;
  air_temperature 69.86;
  mass_temperature 69.86;
  total_thermal_mass_per_floor_area 3.997;
  breaker_amps 1000;
  hvac_breaker_rating 1000;
  heating_system_type GAS;
  cooling_system_type ELECTRIC;
  cooling_setpoint 80.0; //  cooling2*1.35+78.07;
  heating_setpoint 60.0; //  heating5*0.72+67.24;
  object ZIPload { // responsive
    schedule_skew 1887;
    base_power responsive_loads*1.20;
    heatgain_fraction 0.90;
    impedance_pf 1.00;
    current_pf 1.00;
    power_pf 1.00;
    impedance_fraction 0.20;
    current_fraction 0.40;
    power_fraction 0.40;
  };
  object ZIPload { // unresponsive
    schedule_skew 1887;
    base_power unresponsive_loads*1.05;
    heatgain_fraction 0.90;
    impedance_pf 1.00;
    current_pf 1.00;
    power_pf 1.00;
    impedance_fraction 0.20;
    current_fraction 0.40;
    power_fraction 0.40;
  };
  object waterheater {
    name R1_12_47_3_tn_1_wh_8;
    schedule_skew -863;
    heating_element_capacity 4.0 kW;
    thermostat_deadband 6.0;
    location INSIDE;
    tank_diameter 1.5;
    tank_UA 2.3;
    water_demand large_2*0.97;
    tank_volume 40;
    tank_setpoint 123.5;
    object metrics_collector {
      interval 300;
    };
  };
  object metrics_collector {
    interval 300;
  };
}
object triplex_line {
  name R1_12_47_3_tn_1_tpx_9;
  from R1_12_47_3_tn_1;
  to R1_12_47_3_tn_1_mtr_9;
  phases BS;
  length 30;
  configuration tpx_config;
}
object triplex_meter {
  name R1_12_47_3_tn_1_mtr_9;
  phases BS;
  meter_power_consumption 1+7j;
  bill_mode UNIFORM;
  price 0.1243;
  monthly_fee 5.00;
  bill_day 1;
  nominal_voltage 120.0;
  voltage_1 -60.00-103.92j;
  voltage_2 -60.00-103.92j;
  object metrics_collector {
    interval 300;
  };
}
object triplex_meter {
  name R1_12_47_3_tn_1_mhse_9;
  parent R1_12_47_3_tn_1_mtr_9;
  phases BS;
  nominal_voltage 120.0;
}
object house {
  name R1_12_47_3_tn_1_hse_9;
  parent R1_12_47_3_tn_1_mhse_9;
  groupid SINGLE_FAMILY;
  // thermal_integrity_level VERY_GOOD;
  schedule_skew -1341;
  floor_area 2221;
  number_of_stories 2;
  ceiling_height 9;
  over_sizing_factor 0.1;
  Rroof 45.21;
  Rwall 26.23;
  Rfloor 24.43;
  glazing_layers 3;
  glass_type 2;
  glazing_treatment 2;
  window_frame 4;
  Rdoors 10.30;
  airchange_per_hour 0.25;
  cooling_COP 3.6;
  air_temperature 68.46;
  mass_temperature 68.46;
  total_thermal_mass_per_floor_area 3.827;
  breaker_amps 1000;
  hvac_breaker_rating 1000;
  heating_system_type GAS;
  cooling_system_type ELECTRIC;
  cooling_setpoint 80.0; //  cooling6*1.12+85.48;
  heating_setpoint 60.0; //  heating5*0.01+63.85;
  object ZIPload { // responsive
    schedule_skew -1341;
    base_power responsive_loads*1.03;
    heatgain_fraction 0.90;
    impedance_pf 1.00;
    current_pf 1.00;
    power_pf 1.00;
    impedance_fraction 0.20;
    current_fraction 0.40;
    power_fraction 0.40;
  };
  object ZIPload { // unresponsive
    schedule_skew -1341;
    base_power unresponsive_loads*1.13;
    heatgain_fraction 0.90;
    impedance_pf 1.00;
    current_pf 1.00;
    power_pf 1.00;
    impedance_fraction 0.20;
    current_fraction 0.40;
    power_fraction 0.40;
  };
  object waterheater {
    name R1_12_47_3_tn_1_wh_9;
    schedule_skew 3085;
    heating_element_capacity 3.5 kW;
    thermostat_deadband 5.6;
    location INSIDE;
    tank_diameter 1.5;
    tank_UA 3.1;
    water_demand large_1*0.97;
    tank_volume 70;
    waterheater_model MULTILAYER;
    discrete_step_size 60.0;
    lower_tank_setpoint 116.5;
    upper_tank_setpoint 126.5;
    T_mixing_valve 121.5;
    object metrics_collector {
      interval 300;
    };
  };
  object metrics_collector {
    interval 300;
  };
}
object triplex_line {
  name R1_12_47_3_tn_1_tpx_10;
  from R1_12_47_3_tn_1;
  to R1_12_47_3_tn_1_mtr_10;
  phases BS;
  length 30;
  configuration tpx_config;
}
object triplex_meter {
  name R1_12_47_3_tn_1_mtr_10;
  phases BS;
  meter_power_consumption 1+7j;
  bill_mode UNIFORM;
  price 0.1243;
  monthly_fee 5.00;
  bill_day 1;
  nominal_voltage 120.0;
  voltage_1 -60.00-103.92j;
  voltage_2 -60.00-103.92j;
  object metrics_collector {
    interval 300;
  };
}
object triplex_meter {
  name R1_12_47_3_tn_1_mhse_10;
  parent R1_12_47_3_tn_1_mtr_10;
  phases BS;
  nominal_voltage 120.0;
}
object house {
  name R1_12_47_3_tn_1_hse_10;
  parent R1_12_47_3_tn_1_mhse_10;
  groupid SINGLE_FAMILY;
  // thermal_integrity_level VERY_GOOD;
  schedule_skew -749;
  floor_area 2757;
  number_of_stories 1;
  ceiling_height 8;
  over_sizing_factor 0.1;
  Rroof 39.82;
  Rwall 28.99;
  Rfloor 34.91;
  glazing_layers 3;
  glass_type 2;
  glazing_treatment 2;
  window_frame 4;
  Rdoors 11.07;
  airchange_per_hour 0.27;
  cooling_COP 3.7;
  air_temperature 71.12;
  mass_temperature 71.12;
  total_thermal_mass_per_floor_area 2.767;
  breaker_amps 1000;
  hvac_breaker_rating 1000;
  heating_system_type GAS;
  cooling_system_type NONE;
  cooling_setpoint 80.0; //  cooling2*1.62+67.27;
  heating_setpoint 60.0; //  heating4*0.48+61.52;
  object ZIPload { // responsive
    schedule_skew -749;
    base_power responsive_loads*1.36;
    heatgain_fraction 0.90;
    impedance_pf 1.00;
    current_pf 1.00;
    power_pf 1.00;
    impedance_fraction 0.20;
    current_fraction 0.40;
    power_fraction 0.40;
  };
  object ZIPload { // unresponsive
    schedule_skew -749;
    base_power unresponsive_loads*0.99;
    heatgain_fraction 0.90;
    impedance_pf 1.00;
    current_pf 1.00;
    power_pf 1.00;
    impedance_fraction 0.20;
    current_fraction 0.40;
    power_fraction 0.40;
  };
  object waterheater {
    name R1_12_47_3_tn_1_wh_10;
    schedule_skew 1705;
    heating_element_capacity 5.0 kW;
    thermostat_deadband 4.7;
    location INSIDE;
    tank_diameter 1.5;
    tank_UA 2.4;
    water_demand large_5*1.00;
    tank_volume 50;
    waterheater_model MULTILAYER;
    discrete_step_size 60.0;
    lower_tank_setpoint 120.4;
    upper_tank_setpoint 130.4;
    T_mixing_valve 125.4;
    object metrics_collector {
      interval 300;
    };
  };
  object metrics_collector {
    interval 300;
  };
}
object triplex_line {
  name R1_12_47_3_tn_1_tpx_11;
  from R1_12_47_3_tn_1;
  to R1_12_47_3_tn_1_mtr_11;
  phases BS;
  length 30;
  configuration tpx_config;
}
object triplex_meter {
  name R1_12_47_3_tn_1_mtr_11;
  phases BS;
  meter_power_consumption 1+7j;
  bill_mode UNIFORM;
  price 0.1243;
  monthly_fee 5.00;
  bill_day 1;
  nominal_voltage 120.0;
  voltage_1 -60.00-103.92j;
  voltage_2 -60.00-103.92j;
  object metrics_collector {
    interval 300;
  };
}
object triplex_meter {
  name R1_12_47_3_tn_1_mhse_11;
  parent R1_12_47_3_tn_1_mtr_11;
  phases BS;
  nominal_voltage 120.0;
}
object house {
  name R1_12_47_3_tn_1_hse_11;
  parent R1_12_47_3_tn_1_mhse_11;
  groupid SINGLE_FAMILY;
  // thermal_integrity_level VERY_GOOD;
  schedule_skew -1803;
  floor_area 2624;
  number_of_stories 1;
  ceiling_height 8;
  over_sizing_factor 0.1;
  Rroof 41.07;
  Rwall 30.88;
  Rfloor 34.54;
  glazing_layers 3;
  glass_type 2;
  glazing_treatment 2;
  window_frame 4;
  Rdoors 12.67;
  airchange_per_hour 0.23;
  cooling_COP 4.0;
  air_temperature 69.87;
  mass_temperature 69.87;
  total_thermal_mass_per_floor_area 3.418;
  breaker_amps 1000;
  hvac_breaker_rating 1000;
  heating_system_type GAS;
  cooling_system_type ELECTRIC;
  cooling_setpoint 80.0; //  cooling5*1.32+69.76;
  heating_setpoint 60.0; //  heating1*0.47+58.69;
  object ZIPload { // responsive
    schedule_skew -1803;
    base_power responsive_loads*1.06;
    heatgain_fraction 0.90;
    impedance_pf 1.00;
    current_pf 1.00;
    power_pf 1.00;
    impedance_fraction 0.20;
    current_fraction 0.40;
    power_fraction 0.40;
  };
  object ZIPload { // unresponsive
    schedule_skew -1803;
    base_power unresponsive_loads*1.12;
    heatgain_fraction 0.90;
    impedance_pf 1.00;
    current_pf 1.00;
    power_pf 1.00;
    impedance_fraction 0.20;
    current_fraction 0.40;
    power_fraction 0.40;
  };
  object waterheater {
    name R1_12_47_3_tn_1_wh_11;
    schedule_skew 6125;
    heating_element_capacity 5.5 kW;
    thermostat_deadband 4.9;
    location INSIDE;
    tank_diameter 1.5;
    tank_UA 3.4;
    water_demand large_4*1.02;
    tank_volume 50;
    waterheater_model MULTILAYER;
    discrete_step_size 60.0;
    lower_tank_setpoint 109.8;
    upper_tank_setpoint 119.8;
    T_mixing_valve 114.8;
    object metrics_collector {
      interval 300;
    };
  };
  object metrics_collector {
    interval 300;
  };
}
object triplex_meter {
  name R1_12_47_3_tn_1_msol_11;
  parent R1_12_47_3_tn_1_mtr_11;
  phases BS;
  nominal_voltage 120.0;
  object inverter {
    name R1_12_47_3_tn_1_isol_11;
    phases BS;
    generator_status ONLINE;
    inverter_type FOUR_QUADRANT;
    inverter_efficiency 1;
    rated_power 4875;
    power_factor 1.0;
    four_quadrant_control_mode ${INVERTER_MODE};
    V_base ${INV_VBASE};
    V1 ${INV_V1};
    Q1 ${INV_Q1};
    V2 ${INV_V2};
    Q2 ${INV_Q2};
    V3 ${INV_V3};
    Q3 ${INV_Q3};
    V4 ${INV_V4};
    Q4 ${INV_Q4};
    V_In ${INV_VIN};
    I_In ${INV_IIN};
    volt_var_control_lockout ${INV_VVLOCKOUT};
    VW_V1 ${INV_VW_V1};
    VW_V2 ${INV_VW_V2};
    VW_P1 ${INV_VW_P1};
    VW_P2 ${INV_VW_P2};
    object solar {
      name R1_12_47_3_tn_1_sol_11;
      generator_mode SUPPLY_DRIVEN;
      generator_status ONLINE;
      panel_type SINGLE_CRYSTAL_SILICON;
      efficiency 0.20;
      area 262.39;
    };
    object metrics_collector {
      interval 300;
    };
  };
}
object triplex_line {
  name R1_12_47_3_tn_1_tpx_12;
  from R1_12_47_3_tn_1;
  to R1_12_47_3_tn_1_mtr_12;
  phases BS;
  length 30;
  configuration tpx_config;
}
object triplex_meter {
  name R1_12_47_3_tn_1_mtr_12;
  phases BS;
  meter_power_consumption 1+7j;
  bill_mode UNIFORM;
  price 0.1243;
  monthly_fee 5.00;
  bill_day 1;
  nominal_voltage 120.0;
  voltage_1 -60.00-103.92j;
  voltage_2 -60.00-103.92j;
  object metrics_collector {
    interval 300;
  };
}
object triplex_meter {
  name R1_12_47_3_tn_1_mhse_12;
  parent R1_12_47_3_tn_1_mtr_12;
  phases BS;
  nominal_voltage 120.0;
}
object house {
  name R1_12_47_3_tn_1_hse_12;
  parent R1_12_47_3_tn_1_mhse_12;
  groupid SINGLE_FAMILY;
  // thermal_integrity_level VERY_GOOD;
  schedule_skew -1298;
  floor_area 2777;
  number_of_stories 1;
  ceiling_height 8;
  over_sizing_factor 0.1;
  Rroof 47.00;
  Rwall 26.02;
  Rfloor 29.09;
  glazing_layers 3;
  glass_type 2;
  glazing_treatment 2;
  window_frame 4;
  Rdoors 11.25;
  airchange_per_hour 0.28;
  cooling_COP 3.2;
  air_temperature 71.98;
  mass_temperature 71.98;
  total_thermal_mass_per_floor_area 3.320;
  breaker_amps 1000;
  hvac_breaker_rating 1000;
  heating_system_type GAS;
  cooling_system_type NONE;
  cooling_setpoint 80.0; //  cooling5*0.59+71.00;
  heating_setpoint 60.0; //  heating2*0.62+58.99;
  object ZIPload { // responsive
    schedule_skew -1298;
    base_power responsive_loads*1.28;
    heatgain_fraction 0.90;
    impedance_pf 1.00;
    current_pf 1.00;
    power_pf 1.00;
    impedance_fraction 0.20;
    current_fraction 0.40;
    power_fraction 0.40;
  };
  object ZIPload { // unresponsive
    schedule_skew -1298;
    base_power unresponsive_loads*1.07;
    heatgain_fraction 0.90;
    impedance_pf 1.00;
    current_pf 1.00;
    power_pf 1.00;
    impedance_fraction 0.20;
    current_fraction 0.40;
    power_fraction 0.40;
  };
  object waterheater {
    name R1_12_47_3_tn_1_wh_12;
    schedule_skew -3071;
    heating_element_capacity 4.0 kW;
    thermostat_deadband 7.5;
    location INSIDE;
    tank_diameter 1.5;
    tank_UA 2.1;
    water_demand large_3*1.00;
    tank_volume 50;
    tank_setpoint 121.8;
    object metrics_collector {
      interval 300;
    };
  };
  object metrics_collector {
    interval 300;
  };
}
object triplex_line {
  name R1_12_47_3_tn_1_tpx_13;
  from R1_12_47_3_tn_1;
  to R1_12_47_3_tn_1_mtr_13;
  phases BS;
  length 30;
  configuration tpx_config;
}
object triplex_meter {
  name R1_12_47_3_tn_1_mtr_13;
  phases BS;
  meter_power_consumption 1+7j;
  bill_mode UNIFORM;
  price 0.1243;
  monthly_fee 5.00;
  bill_day 1;
  nominal_voltage 120.0;
  voltage_1 -60.00-103.92j;
  voltage_2 -60.00-103.92j;
  object metrics_collector {
    interval 300;
  };
}
object triplex_meter {
  name R1_12_47_3_tn_1_mhse_13;
  parent R1_12_47_3_tn_1_mtr_13;
  phases BS;
  nominal_voltage 120.0;
}
object house {
  name R1_12_47_3_tn_1_hse_13;
  parent R1_12_47_3_tn_1_mhse_13;
  groupid SINGLE_FAMILY;
  // thermal_integrity_level VERY_GOOD;
  schedule_skew -1257;
  floor_area 2052;
  number_of_stories 2;
  ceiling_height 9;
  over_sizing_factor 0.1;
  Rroof 54.28;
  Rwall 24.35;
  Rfloor 24.86;
  glazing_layers 3;
  glass_type 2;
  glazing_treatment 2;
  window_frame 4;
  Rdoors 11.10;
  airchange_per_hour 0.26;
  cooling_COP 3.1;
  air_temperature 69.76;
  mass_temperature 69.76;
  total_thermal_mass_per_floor_area 2.764;
  breaker_amps 1000;
  hvac_breaker_rating 1000;
  heating_system_type GAS;
  cooling_system_type NONE;
...